Results/belli_myc_prob_topol_15/from_terminal_0/network_debug.txt
Pandapower Network Debug Info
==================================================

BUS:
           name  vn_kv type  zone  in_service   geo
0         Bus 8    0.4    b  None        True  None
1         Bus 9    0.4    b  None        True  None
2        Bus 10    0.4    b  None        True  None
3        Bus 11    0.4    b  None        True  None
4        Bus 16    0.4    b  None        True  None
5        Bus 17    0.4    b  None        True  None
6        Bus 18    0.4    b  None        True  None
7        Bus 19    0.4    b  None        True  None
8        Bus 20    0.4    b  None        True  None
9        Bus 21   15.0    b  None        True  None
10       Bus 22   15.0    b  None        True  None
11       Bus 23   15.0    b  None        True  None
12       Bus 24   15.0    b  None        True  None
13       Bus 25   15.0    b  None        True  None
14       Bus 26   15.0    b  None        True  None
15     Sub MV 2   15.0    b  None        True  None
16     Sub LV 2    0.4    b  None        True  None
17     Sub MV 3   15.0    b  None        True  None
18     Sub LV 3    0.4    b  None        True  None
19     Sub MV 5   15.0    b  None        True  None
20     Sub LV 5    0.4    b  None        True  None
21  Slack HV 27   70.0    b  None        True  None
22  Slack MV 27   15.0    b  None        True  None
--------------------------------------------------

LOAD:
            name  bus          p_mw        q_mvar  const_z_percent  const_i_percent  sn_mva  scaling  in_service type
0      Load 8 T1    0  1.068814e-03  1.999667e-04              0.0              0.0     NaN      1.0        True  wye
1      Load 8 T2    0  1.143118e-03  2.147246e-04              0.0              0.0     NaN      1.0        True  wye
2      Load 8 T3    0  1.101399e-03  1.759170e-04              0.0              0.0     NaN      1.0        True  wye
3      Load 8 T4    0  1.078709e-03  2.066701e-04              0.0              0.0     NaN      1.0        True  wye
4      Load 8 T5    0  1.194105e-03  1.696072e-04              0.0              0.0     NaN      1.0        True  wye
5      Load 8 T6    0  1.195663e-03  1.719049e-04              0.0              0.0     NaN      1.0        True  wye
6      Load 8 T7    0  8.515620e-04  1.773825e-04              0.0              0.0     NaN      1.0        True  wye
7      Load 8 T8    0  9.847768e-04  1.927403e-04              0.0              0.0     NaN      1.0        True  wye
8      Load 8 T9    0  1.198370e-03  1.721886e-04              0.0              0.0     NaN      1.0        True  wye
9     Load 8 T10    0  9.943135e-04  2.297044e-04              0.0              0.0     NaN      1.0        True  wye
10    Load 8 T11    0  9.327033e-04  1.678033e-04              0.0              0.0     NaN      1.0        True  wye
11    Load 8 T12    0  1.043268e-03  2.115480e-04              0.0              0.0     NaN      1.0        True  wye
12    Load 8 T13    0  1.120470e-03  1.862745e-04              0.0              0.0     NaN      1.0        True  wye
13    Load 8 T14    0  8.783412e-04  1.781574e-04              0.0              0.0     NaN      1.0        True  wye
14    Load 8 T15    0  9.556062e-04  1.760121e-04              0.0              0.0     NaN      1.0        True  wye
15    Load 8 T16    0  1.166888e-03  2.158156e-04              0.0              0.0     NaN      1.0        True  wye
16    Load 8 T17    0  9.442671e-04  2.149174e-04              0.0              0.0     NaN      1.0        True  wye
17    Load 8 T18    0  1.103140e-03  2.115398e-04              0.0              0.0     NaN      1.0        True  wye
18    Load 8 T19    0  8.453902e-04  1.945280e-04              0.0              0.0     NaN      1.0        True  wye
19    Load 8 T20    0  1.017616e-03  1.620780e-04              0.0              0.0     NaN      1.0        True  wye
20    Load 8 T21    0  8.267927e-04  1.770172e-04              0.0              0.0     NaN      1.0        True  wye
21    Load 8 T22    0  1.155383e-03  1.897779e-04              0.0              0.0     NaN      1.0        True  wye
22    Load 8 T23    0  1.073852e-03  1.849219e-04              0.0              0.0     NaN      1.0        True  wye
23    Load 8 T24    0  1.040923e-03  2.276662e-04              0.0              0.0     NaN      1.0        True  wye
24     Load 9 T1    1  1.592458e-03  3.227319e-04              0.0              0.0     NaN      1.0        True  wye
25     Load 9 T2    1  1.358189e-03  3.599689e-04              0.0              0.0     NaN      1.0        True  wye
26     Load 9 T3    1  1.311069e-03  3.394727e-04              0.0              0.0     NaN      1.0        True  wye
27     Load 9 T4    1  1.372597e-03  4.296848e-04              0.0              0.0     NaN      1.0        True  wye
28     Load 9 T5    1  1.356838e-03  4.188304e-04              0.0              0.0     NaN      1.0        True  wye
29     Load 9 T6    1  1.206749e-03  4.504486e-04              0.0              0.0     NaN      1.0        True  wye
30     Load 9 T7    1  1.510068e-03  4.084843e-04              0.0              0.0     NaN      1.0        True  wye
31     Load 9 T8    1  1.794054e-03  3.454932e-04              0.0              0.0     NaN      1.0        True  wye
32     Load 9 T9    1  1.533566e-03  4.030743e-04              0.0              0.0     NaN      1.0        True  wye
33    Load 9 T10    1  1.391528e-03  4.073647e-04              0.0              0.0     NaN      1.0        True  wye
34    Load 9 T11    1  1.468030e-03  3.569503e-04              0.0              0.0     NaN      1.0        True  wye
35    Load 9 T12    1  1.793429e-03  3.134850e-04              0.0              0.0     NaN      1.0        True  wye
36    Load 9 T13    1  1.378213e-03  4.232472e-04              0.0              0.0     NaN      1.0        True  wye
37    Load 9 T14    1  1.278148e-03  3.775721e-04              0.0              0.0     NaN      1.0        True  wye
38    Load 9 T15    1  1.779517e-03  3.339033e-04              0.0              0.0     NaN      1.0        True  wye
39    Load 9 T16    1  1.323006e-03  3.984969e-04              0.0              0.0     NaN      1.0        True  wye
40    Load 9 T17    1  1.796560e-03  3.672786e-04              0.0              0.0     NaN      1.0        True  wye
41    Load 9 T18    1  1.657789e-03  4.393002e-04              0.0              0.0     NaN      1.0        True  wye
42    Load 9 T19    1  1.572163e-03  3.534746e-04              0.0              0.0     NaN      1.0        True  wye
43    Load 9 T20    1  1.501194e-03  3.085757e-04              0.0              0.0     NaN      1.0        True  wye
44    Load 9 T21    1  1.734626e-03  3.977824e-04              0.0              0.0     NaN      1.0        True  wye
45    Load 9 T22    1  1.750321e-03  3.716862e-04              0.0              0.0     NaN      1.0        True  wye
46    Load 9 T23    1  1.663016e-03  4.390011e-04              0.0              0.0     NaN      1.0        True  wye
47    Load 9 T24    1  1.793074e-03  4.189990e-04              0.0              0.0     NaN      1.0        True  wye
48    Load 10 T1    2 -1.295554e-03  0.000000e+00              0.0              0.0     NaN      1.0        True  wye
49    Load 10 T2    2 -1.135329e-03 -3.792905e-05              0.0              0.0     NaN      1.0        True  wye
50    Load 10 T3    2 -1.046316e-03 -2.051377e-05              0.0              0.0     NaN      1.0        True  wye
51    Load 10 T4    2 -1.085278e-03 -9.956258e-05              0.0              0.0     NaN      1.0        True  wye
52    Load 10 T5    2 -1.185057e-03 -5.174407e-05              0.0              0.0     NaN      1.0        True  wye
53    Load 10 T6    2 -1.036285e-03 -8.547174e-05              0.0              0.0     NaN      1.0        True  wye
54    Load 10 T7    2 -9.954483e-04 -4.899094e-05              0.0              0.0     NaN      1.0        True  wye
55    Load 10 T8    2 -1.326815e-03 -1.944288e-06              0.0              0.0     NaN      1.0        True  wye
56    Load 10 T9    2 -1.366207e-03 -3.879216e-05              0.0              0.0     NaN      1.0        True  wye
57   Load 10 T10    2 -1.019707e-03 -1.002024e-04              0.0              0.0     NaN      1.0        True  wye
58   Load 10 T11    2 -1.034583e-03  0.000000e+00              0.0              0.0     NaN      1.0        True  wye
59   Load 10 T12    2 -1.368548e-03  0.000000e+00              0.0              0.0     NaN      1.0        True  wye
60   Load 10 T13    2 -1.132575e-03 -7.276360e-05              0.0              0.0     NaN      1.0        True  wye
61   Load 10 T14    2 -7.897881e-04 -1.854488e-05              0.0              0.0     NaN      1.0        True  wye
62   Load 10 T15    2 -1.368548e-03  0.000000e+00              0.0              0.0     NaN      1.0        True  wye
63   Load 10 T16    2 -1.123912e-03 -7.754230e-05              0.0              0.0     NaN      1.0        True  wye
64   Load 10 T17    2 -1.368548e-03 -4.579298e-05              0.0              0.0     NaN      1.0        True  wye
65   Load 10 T18    2 -1.368548e-03 -1.144902e-04              0.0              0.0     NaN      1.0        True  wye
66   Load 10 T19    2 -1.051448e-03 -1.118531e-05              0.0              0.0     NaN      1.0        True  wye
67   Load 10 T20    2 -1.152831e-03  0.000000e+00              0.0              0.0     NaN      1.0        True  wye
68   Load 10 T21    2 -1.195581e-03 -3.819536e-05              0.0              0.0     NaN      1.0        True  wye
69   Load 10 T22    2 -1.440933e-03 -5.390087e-04              0.0              0.0     NaN      1.0        True  wye
70   Load 10 T23    2 -1.368548e-03 -8.750471e-05              0.0              0.0     NaN      1.0        True  wye
71   Load 10 T24    2 -1.368548e-03 -1.104784e-04              0.0              0.0     NaN      1.0        True  wye
72    Load 11 T1    3 -1.368548e-03 -5.251567e-04              0.0              0.0     NaN      1.0        True  wye
73    Load 11 T2    3 -1.368548e-03 -5.390087e-04              0.0              0.0     NaN      1.0        True  wye
74    Load 11 T3    3 -1.368548e-03 -4.969905e-04              0.0              0.0     NaN      1.0        True  wye
75    Load 11 T4    3 -1.368548e-03 -5.390087e-04              0.0              0.0     NaN      1.0        True  wye
76    Load 11 T5    3 -1.368548e-03 -5.390087e-04              0.0              0.0     NaN      1.0        True  wye
77    Load 11 T6    3 -1.368548e-03 -5.390087e-04              0.0              0.0     NaN      1.0        True  wye
78    Load 11 T7    3 -1.368548e-03 -5.390087e-04              0.0              0.0     NaN      1.0        True  wye
79    Load 11 T8    3 -1.455030e-03 -5.390087e-04              0.0              0.0     NaN      1.0        True  wye
80    Load 11 T9    3 -1.368548e-03 -5.390087e-04              0.0              0.0     NaN      1.0        True  wye
81   Load 11 T10    3 -1.368548e-03 -5.390087e-04              0.0              0.0     NaN      1.0        True  wye
82   Load 11 T11    3 -1.368548e-03 -5.268986e-04              0.0              0.0     NaN      1.0        True  wye
83   Load 11 T12    3 -1.471265e-03 -5.278222e-04              0.0              0.0     NaN      1.0        True  wye
84   Load 11 T13    3 -1.368548e-03 -5.390087e-04              0.0              0.0     NaN      1.0        True  wye
85   Load 11 T14    3 -1.368548e-03 -5.390087e-04              0.0              0.0     NaN      1.0        True  wye
86   Load 11 T15    3 -1.369413e-03 -5.124888e-04              0.0              0.0     NaN      1.0        True  wye
87   Load 11 T16    3 -1.368548e-03 -5.390087e-04              0.0              0.0     NaN      1.0        True  wye
88   Load 11 T17    3 -1.375146e-03 -5.390087e-04              0.0              0.0     NaN      1.0        True  wye
89   Load 11 T18    3 -1.395469e-03 -5.390087e-04              0.0              0.0     NaN      1.0        True  wye
90   Load 11 T19    3 -1.368548e-03 -5.390087e-04              0.0              0.0     NaN      1.0        True  wye
91   Load 11 T20    3 -1.368548e-03 -4.729132e-04              0.0              0.0     NaN      1.0        True  wye
92   Load 11 T21    3 -1.368548e-03 -5.390087e-04              0.0              0.0     NaN      1.0        True  wye
93   Load 11 T22    3 -1.468178e-03 -2.544293e-05              0.0              0.0     NaN      1.0        True  wye
94   Load 11 T23    3 -1.371185e-03 -5.390087e-04              0.0              0.0     NaN      1.0        True  wye
95   Load 11 T24    3 -1.468596e-03 -5.390087e-04              0.0              0.0     NaN      1.0        True  wye
96    Load 16 T1    4 -5.799910e-04 -3.977620e-04              0.0              0.0     NaN      1.0        True  wye
97    Load 16 T2    4 -5.393118e-04 -5.120571e-04              0.0              0.0     NaN      1.0        True  wye
98    Load 16 T3    4 -6.226213e-04 -3.768231e-04              0.0              0.0     NaN      1.0        True  wye
99    Load 16 T4    4 -5.393109e-04 -5.093761e-04              0.0              0.0     NaN      1.0        True  wye
100   Load 16 T5    4 -5.392593e-04 -3.517846e-04              0.0              0.0     NaN      1.0        True  wye
101   Load 16 T6    4 -5.392849e-04 -4.299584e-04              0.0              0.0     NaN      1.0        True  wye
102   Load 16 T7    4 -5.853422e-04 -4.591677e-04              0.0              0.0     NaN      1.0        True  wye
103   Load 16 T8    4 -1.226542e-07 -4.722283e-04              0.0              0.0     NaN      1.0        True  wye
104   Load 16 T9    4 -4.867181e-04 -3.535990e-04              0.0              0.0     NaN      1.0        True  wye
105  Load 16 T10    4 -2.506644e-04 -3.620677e-04              0.0              0.0     NaN      1.0        True  wye
106  Load 16 T11    4 -3.024156e-04 -3.807982e-04              0.0              0.0     NaN      1.0        True  wye
107  Load 16 T12    4 -5.392754e-04 -4.009995e-04              0.0              0.0     NaN      1.0        True  wye
108  Load 16 T13    4 -4.258264e-04 -4.250630e-04              0.0              0.0     NaN      1.0        True  wye
109  Load 16 T14    4 -5.374664e-04 -4.841304e-04              0.0              0.0     NaN      1.0        True  wye
110  Load 16 T15    4 -1.217103e-07 -4.685942e-04              0.0              0.0     NaN      1.0        True  wye
111  Load 16 T16    4 -4.765705e-04 -3.896103e-04              0.0              0.0     NaN      1.0        True  wye
112  Load 16 T17    4 -5.753516e-04 -4.560274e-04              0.0              0.0     NaN      1.0        True  wye
113  Load 16 T18    4 -5.392076e-04 -4.249656e-04              0.0              0.0     NaN      1.0        True  wye
114  Load 16 T19    4 -2.827181e-04 -4.221212e-04              0.0              0.0     NaN      1.0        True  wye
115  Load 16 T20    4 -4.908351e-04 -5.001208e-04              0.0              0.0     NaN      1.0        True  wye
116  Load 16 T21    4 -5.392614e-04 -3.579463e-04              0.0              0.0     NaN      1.0        True  wye
117  Load 16 T22    4 -4.564316e-04 -4.733530e-04              0.0              0.0     NaN      1.0        True  wye
118  Load 16 T23    4 -5.393064e-04 -4.956934e-04              0.0              0.0     NaN      1.0        True  wye
119  Load 16 T24    4 -3.852357e-04 -3.939008e-04              0.0              0.0     NaN      1.0        True  wye
120   Load 17 T1    5 -1.526492e-03  2.698326e-04              0.0              0.0     NaN      1.0        True  wye
121   Load 17 T2    5 -1.545907e-03  3.186786e-04              0.0              0.0     NaN      1.0        True  wye
122   Load 17 T3    5 -1.698173e-03  2.895716e-04              0.0              0.0     NaN      1.0        True  wye
123   Load 17 T4    5 -1.571211e-03  3.896597e-04              0.0              0.0     NaN      1.0        True  wye
124   Load 17 T5    5 -1.391624e-03  3.431598e-04              0.0              0.0     NaN      1.0        True  wye
125   Load 17 T6    5 -1.783094e-03  2.751141e-04              0.0              0.0     NaN      1.0        True  wye
126   Load 17 T7    5 -1.546033e-03  2.553910e-04              0.0              0.0     NaN      1.0        True  wye
127   Load 17 T8    5 -1.101329e-03  2.786425e-04              0.0              0.0     NaN      1.0        True  wye
128   Load 17 T9    5 -1.302471e-03  3.202692e-04              0.0              0.0     NaN      1.0        True  wye
129  Load 17 T10    5 -8.309624e-04  3.082832e-04              0.0              0.0     NaN      1.0        True  wye
130  Load 17 T11    5 -1.393089e-03  3.053397e-04              0.0              0.0     NaN      1.0        True  wye
131  Load 17 T12    5 -1.453696e-03  3.057626e-04              0.0              0.0     NaN      1.0        True  wye
132  Load 17 T13    5 -7.875099e-04  2.914875e-04              0.0              0.0     NaN      1.0        True  wye
133  Load 17 T14    5 -1.273648e-03  2.805625e-04              0.0              0.0     NaN      1.0        True  wye
134  Load 17 T15    5 -1.069502e-03  2.915089e-04              0.0              0.0     NaN      1.0        True  wye
135  Load 17 T16    5 -1.086123e-03  2.633902e-04              0.0              0.0     NaN      1.0        True  wye
136  Load 17 T17    5 -1.573156e-03  3.406260e-04              0.0              0.0     NaN      1.0        True  wye
137  Load 17 T18    5 -1.511630e-03  2.528796e-04              0.0              0.0     NaN      1.0        True  wye
138  Load 17 T19    5 -1.164819e-03  3.208175e-04              0.0              0.0     NaN      1.0        True  wye
139  Load 17 T20    5 -1.647389e-03  2.867758e-04              0.0              0.0     NaN      1.0        True  wye
140  Load 17 T21    5 -1.862731e-03  3.127580e-04              0.0              0.0     NaN      1.0        True  wye
141  Load 17 T22    5 -1.073292e-03  3.239592e-04              0.0              0.0     NaN      1.0        True  wye
142  Load 17 T23    5 -1.729972e-03  3.319721e-04              0.0              0.0     NaN      1.0        True  wye
143  Load 17 T24    5 -1.585331e-03  2.876502e-04              0.0              0.0     NaN      1.0        True  wye
144   Load 18 T1    6  1.352253e-03  2.677723e-04              0.0              0.0     NaN      1.0        True  wye
145   Load 18 T2    6  9.727389e-04  2.192324e-04              0.0              0.0     NaN      1.0        True  wye
146   Load 18 T3    6  1.112257e-03  2.481559e-04              0.0              0.0     NaN      1.0        True  wye
147   Load 18 T4    6  1.317165e-03  2.839944e-04              0.0              0.0     NaN      1.0        True  wye
148   Load 18 T5    6  9.739898e-04  1.948333e-04              0.0              0.0     NaN      1.0        True  wye
149   Load 18 T6    6  1.355706e-03  2.624200e-04              0.0              0.0     NaN      1.0        True  wye
150   Load 18 T7    6  1.006506e-03  2.824970e-04              0.0              0.0     NaN      1.0        True  wye
151   Load 18 T8    6  1.180572e-03  2.591897e-04              0.0              0.0     NaN      1.0        True  wye
152   Load 18 T9    6  1.301890e-03  2.174602e-04              0.0              0.0     NaN      1.0        True  wye
153  Load 18 T10    6  1.094124e-03  2.296029e-04              0.0              0.0     NaN      1.0        True  wye
154  Load 18 T11    6  1.392444e-03  2.322504e-04              0.0              0.0     NaN      1.0        True  wye
155  Load 18 T12    6  1.304368e-03  2.319162e-04              0.0              0.0     NaN      1.0        True  wye
156  Load 18 T13    6  1.288489e-03  2.461027e-04              0.0              0.0     NaN      1.0        True  wye
157  Load 18 T14    6  1.273078e-03  2.571878e-04              0.0              0.0     NaN      1.0        True  wye
158  Load 18 T15    6  1.285615e-03  2.785460e-04              0.0              0.0     NaN      1.0        True  wye
159  Load 18 T16    6  1.246810e-03  2.743373e-04              0.0              0.0     NaN      1.0        True  wye
160  Load 18 T17    6  1.049567e-03  2.679732e-04              0.0              0.0     NaN      1.0        True  wye
161  Load 18 T18    6  1.379877e-03  2.846859e-04              0.0              0.0     NaN      1.0        True  wye
162  Load 18 T19    6  1.127743e-03  2.347544e-04              0.0              0.0     NaN      1.0        True  wye
163  Load 18 T20    6  1.413736e-03  2.506877e-04              0.0              0.0     NaN      1.0        True  wye
164  Load 18 T21    6  1.327665e-03  2.247800e-04              0.0              0.0     NaN      1.0        True  wye
165  Load 18 T22    6  1.072830e-03  2.140347e-04              0.0              0.0     NaN      1.0        True  wye
166  Load 18 T23    6  1.283808e-03  2.056492e-04              0.0              0.0     NaN      1.0        True  wye
167  Load 18 T24    6  1.080362e-03  2.501730e-04              0.0              0.0     NaN      1.0        True  wye
168   Load 19 T1    7 -1.369852e-03  4.079092e-04              0.0              0.0     NaN      1.0        True  wye
169   Load 19 T2    7 -1.369848e-03  3.985130e-04              0.0              0.0     NaN      1.0        True  wye
170   Load 19 T3    7 -1.369841e-03  3.793585e-04              0.0              0.0     NaN      1.0        True  wye
171   Load 19 T4    7 -1.369855e-03  4.161092e-04              0.0              0.0     NaN      1.0        True  wye
172   Load 19 T5    7 -1.369793e-03  2.479608e-04              0.0              0.0     NaN      1.0        True  wye
173   Load 19 T6    7 -1.369844e-03  3.872287e-04              0.0              0.0     NaN      1.0        True  wye
174   Load 19 T7    7 -1.369843e-03  3.828364e-04              0.0              0.0     NaN      1.0        True  wye
175   Load 19 T8    7 -2.096059e-03  4.322884e-04              0.0              0.0     NaN      1.0        True  wye
176   Load 19 T9    7 -1.936491e-03  2.725865e-04              0.0              0.0     NaN      1.0        True  wye
177  Load 19 T10    7 -2.184874e-03  4.247776e-04              0.0              0.0     NaN      1.0        True  wye
178  Load 19 T11    7 -1.606095e-03  3.379539e-04              0.0              0.0     NaN      1.0        True  wye
179  Load 19 T12    7 -1.643269e-03  3.720792e-04              0.0              0.0     NaN      1.0        True  wye
180  Load 19 T13    7 -1.872812e-03  3.418488e-04              0.0              0.0     NaN      1.0        True  wye
181  Load 19 T14    7 -1.911731e-03  5.359222e-04              0.0              0.0     NaN      1.0        True  wye
182  Load 19 T15    7 -2.236364e-03  4.626849e-04              0.0              0.0     NaN      1.0        True  wye
183  Load 19 T16    7 -1.610320e-03  3.500596e-04              0.0              0.0     NaN      1.0        True  wye
184  Load 19 T17    7 -1.369860e-03  4.302949e-04              0.0              0.0     NaN      1.0        True  wye
185  Load 19 T18    7 -1.369814e-03  3.041241e-04              0.0              0.0     NaN      1.0        True  wye
186  Load 19 T19    7 -2.270488e-03  4.220785e-04              0.0              0.0     NaN      1.0        True  wye
187  Load 19 T20    7 -1.369891e-03  5.165139e-04              0.0              0.0     NaN      1.0        True  wye
188  Load 19 T21    7 -1.369825e-03  3.352674e-04              0.0              0.0     NaN      1.0        True  wye
189  Load 19 T22    7 -1.369859e-03  4.281287e-04              0.0              0.0     NaN      1.0        True  wye
190  Load 19 T23    7 -1.369883e-03  4.926726e-04              0.0              0.0     NaN      1.0        True  wye
191  Load 19 T24    7 -1.369833e-03  3.575765e-04              0.0              0.0     NaN      1.0        True  wye
192   Load 20 T1    8  2.121228e-03 -5.512450e-04              0.0              0.0     NaN      1.0        True  wye
193   Load 20 T2    8  2.479372e-03 -4.277455e-04              0.0              0.0     NaN      1.0        True  wye
194   Load 20 T3    8  2.575289e-03 -5.438979e-04              0.0              0.0     NaN      1.0        True  wye
195   Load 20 T4    8  2.160214e-03 -5.840776e-04              0.0              0.0     NaN      1.0        True  wye
196   Load 20 T5    8  2.324049e-03 -4.372241e-04              0.0              0.0     NaN      1.0        True  wye
197   Load 20 T6    8  2.333529e-03 -4.984360e-04              0.0              0.0     NaN      1.0        True  wye
198   Load 20 T7    8  2.491752e-03 -4.649844e-04              0.0              0.0     NaN      1.0        True  wye
199   Load 20 T8    8  2.012105e-03 -5.026628e-04              0.0              0.0     NaN      1.0        True  wye
...

EXT_GRID:
         name  bus  vm_pu  va_degree  slack_weight  in_service
0  ExtGrid 27   21    1.0        0.0           1.0        True
--------------------------------------------------

LINE:
       name std_type  from_bus  to_bus  length_km  r_ohm_per_km  x_ohm_per_km  c_nf_per_km  g_us_per_km  max_i_ka   df  parallel  type  in_service   geo
0    Line 9     None        22      17   0.316228        0.5502         0.429          0.0          0.0      0.23  1.0         1  None        True  None
1   Line 11     None        22      19   0.412311        0.5502         0.429          0.0          0.0      0.23  1.0         1  None        True  None
2   Line 12     None        15       9   0.316228        0.5502         0.429          0.0          0.0      0.23  1.0         1  None        True  None
3   Line 17     None        17      11   0.141421        0.5502         0.429          0.0          0.0      0.23  1.0         1  None        True  None
4   Line 21     None        19      12   0.141421        0.5502         0.429          0.0          0.0      0.23  1.0         1  None        True  None
5   Line 22     None        19      13   0.223607        0.5502         0.429          0.0          0.0      0.23  1.0         1  None        True  None
6   Line 24     None        16       0   0.136015        0.5502         0.429          0.0          0.0      0.23  1.0         1  None        True  None
7   Line 38     None        20       5   0.225610        0.5502         0.429          0.0          0.0      0.23  1.0         1  None        True  None
8   Line 40     None        20       7   0.196469        0.5502         0.429          0.0          0.0      0.23  1.0         1  None        True  None
9   Line 41     None        20       8   0.050000        0.5502         0.429          0.0          0.0      0.23  1.0         1  None        True  None
10  Line 42     None        10       9   0.141421        0.5502         0.429          0.0          0.0      0.23  1.0         1  None        True  None
11  Line 44     None        11      10   0.200000        0.5502         0.429          0.0          0.0      0.23  1.0         1  None        True  None
12  Line 47     None        14      13   0.200000        0.5502         0.429          0.0          0.0      0.23  1.0         1  None        True  None
13  Line 48     None         1       0   0.172047        0.5502         0.429          0.0          0.0      0.23  1.0         1  None        True  None
14  Line 50     None         3       0   0.194165        0.5502         0.429          0.0          0.0      0.23  1.0         1  None        True  None
15  Line 51     None         2       1   0.263059        0.5502         0.429          0.0          0.0      0.23  1.0         1  None        True  None
16  Line 56     None         8       4   0.353836        0.5502         0.429          0.0          0.0      0.23  1.0         1  None        True  None
17  Line 57     None         6       5   0.253180        0.5502         0.429          0.0          0.0      0.23  1.0         1  None        True  None
--------------------------------------------------

TRAFO:
                   name std_type  hv_bus  lv_bus  sn_mva  vn_hv_kv  vn_lv_kv  vk_percent  vkr_percent  pfe_kw  i0_percent  shift_degree tap_side  tap_neutral  tap_min  tap_max  tap_step_percent  tap_step_degree  tap_pos tap_changer_type  id_characteristic_table  tap_dependency_table  parallel   df  in_service
0   MV/LV Transformer 2     None      15      16    10.0      15.0       0.4        0.01         0.01    0.01        0.01           0.0     None          NaN      NaN      NaN               NaN              NaN      NaN              NaN                     <NA>                 False         1  1.0        True
1   MV/LV Transformer 3     None      17      18    10.0      15.0       0.4        0.01         0.01    0.01        0.01           0.0     None          NaN      NaN      NaN               NaN              NaN      NaN              NaN                     <NA>                 False         1  1.0        True
2   MV/LV Transformer 5     None      19      20    10.0      15.0       0.4        0.01         0.01    0.01        0.01           0.0     None          NaN      NaN      NaN               NaN              NaN      NaN              NaN                     <NA>                 False         1  1.0        True
3  Slack Transformer 27     None      21      22    40.0      70.0      15.0        0.01         0.01    0.01        0.01           0.0     None          NaN      NaN      NaN               NaN              NaN      NaN              NaN                     <NA>                 False         1  1.0        True
--------------------------------------------------

RES_BUS:
       vm_pu     va_degree      p_mw        q_mvar
0   0.999948 -1.981729e-03  0.001041  2.276662e-04
1   0.999553 -2.744458e-03  0.001793  4.189990e-04
2   1.000867  4.681478e-02 -0.001369 -1.104784e-04
3   1.001208  2.117737e-02 -0.001469 -5.390087e-04
4   1.000610 -3.105021e-02 -0.000385 -3.939008e-04
5   1.000034  4.011427e-02 -0.001585  2.876502e-04
6   0.998923  1.054258e-02  0.001080  2.501730e-04
7   1.000706  5.385497e-02 -0.001370  3.575765e-04
8   0.999768 -2.453250e-02  0.002257 -5.047762e-04
9   0.999949 -2.016079e-03  0.011305 -3.759153e-08
10  0.999953 -1.861052e-03  0.008834 -1.735623e-07
11  0.999964 -1.448776e-03  0.011000 -9.156740e-07
12  0.999967 -1.376286e-03  0.006523  9.594314e-04
13  0.999958 -1.898702e-03  0.013641 -4.197023e-03
14  0.999952 -2.023430e-03  0.009350  2.839417e-03
15  0.999948 -1.972137e-03  0.000000  0.000000e+00
16  0.999948 -1.971851e-03  0.000000  0.000000e+00
17  0.999975 -9.872811e-04  0.000000  0.000000e+00
18  0.999975 -9.869946e-04  0.000000  0.000000e+00
19  0.999970 -1.294513e-03  0.000000  0.000000e+00
20  0.999970 -1.294227e-03  0.000000  0.000000e+00
21  1.000000  0.000000e+00 -0.060698 -6.602036e-03
22  1.000000  6.591941e-07  0.000000  0.000000e+00
--------------------------------------------------

RES_LINE:
       p_from_mw   q_from_mvar       p_to_mw     q_to_mvar         pl_mw       ql_mvar     i_from_ka       i_to_ka          i_ka  vm_from_pu  va_from_degree  vm_to_pu  va_to_degree  loading_percent
0   3.116159e-02  1.999564e-03 -3.116083e-02 -1.998976e-03  7.539835e-07  5.878934e-07  1.201877e-03  1.201877e-03  1.201877e-03    1.000000    6.591941e-07  0.999975     -0.000987         0.522555
1   2.952630e-02  6.024844e-04 -2.952542e-02 -6.017987e-04  8.793497e-07  6.856435e-07  1.136705e-03  1.136705e-03  1.136705e-03    1.000000    6.591941e-07  0.999970     -0.001295         0.494219
2  -1.034935e-05 -9.997516e-04  1.035012e-05  9.997522e-04  7.730606e-10  6.027681e-10  3.848450e-05  3.848450e-05  3.848450e-05    0.999948   -1.972137e-03  0.999949     -0.002016         0.016732
3   3.115083e-02  9.990773e-04 -3.115050e-02 -9.988154e-04  3.359395e-07  2.619375e-07  1.199643e-03  1.199643e-03  1.199643e-03    0.999975   -9.872811e-04  0.999964     -0.001449         0.521584
4   6.523120e-03  9.594432e-04 -6.523105e-03 -9.594314e-04  1.503438e-08  1.172255e-08  2.537840e-04  2.537840e-04  2.537840e-04    0.999970   -1.294513e-03  0.999967     -0.001376         0.110341
5   2.299117e-02 -1.357342e-03 -2.299088e-02  1.357569e-03  2.900567e-07  2.261620e-07  8.864985e-04  8.864985e-04  8.864985e-04    0.999970   -1.294513e-03  0.999958     -0.001899         0.385434
6   3.503771e-07 -9.537340e-08 -3.503771e-07  9.537345e-08  6.168010e-14  4.809299e-14  5.241537e-07  5.241537e-07  5.241537e-07    0.999948   -1.971851e-03  0.999948     -0.001982         0.000228
7  -5.034743e-04  5.389889e-04  5.038964e-04 -5.386598e-04  4.220667e-07  3.290924e-07  1.064609e-03  1.064609e-03  1.064609e-03    0.999970   -1.294227e-03  1.000034      0.040114         0.462874
8  -1.368481e-03  3.586309e-04  1.369833e-03 -3.575765e-04  1.352213e-06  1.054343e-06  2.041996e-03  2.041996e-03  2.041996e-03    0.999970   -1.294227e-03  1.000706      0.053855         0.887824
9   1.873086e-03 -8.978109e-04 -1.872344e-03  8.983894e-04  7.418722e-07  5.784500e-07  2.998186e-03  2.998186e-03  2.998186e-03    0.999970   -1.294227e-03  0.999768     -0.024533         1.303559
10  1.131569e-02  9.997494e-04 -1.131564e-02 -9.997146e-04  4.463055e-08  3.479918e-08  4.372579e-04  4.372579e-04  4.372579e-04    0.999953   -1.861052e-03  0.999949     -0.002016         0.190112
11  2.015012e-02  9.997311e-04 -2.014992e-02 -9.995758e-04  1.990777e-07  1.552242e-07  7.765607e-04  7.765607e-04  7.765607e-04    0.999964   -1.448776e-03  0.999953     -0.001861         0.337635
12 -9.349780e-03 -2.839417e-03  9.349827e-03  2.839454e-03  4.670090e-08  3.641346e-08  3.761203e-04  3.761203e-04  3.761203e-04    0.999952   -2.023430e-03  0.999958     -0.001899         0.163531
13 -4.262288e-04 -3.098479e-04  4.263932e-04  3.099761e-04  1.644274e-07  1.282068e-07  7.609275e-04  7.609275e-04  7.609275e-04    0.999553   -2.744458e-03  0.999948     -0.001982         0.330838
14  1.468596e-03  5.390087e-04 -1.466966e-03 -5.377377e-04  1.630086e-06  1.271005e-06  2.255273e-03  2.255273e-03  2.255273e-03    1.001208    2.117737e-02  0.999948     -0.001982         0.980553
15  1.368548e-03  1.104784e-04 -1.366845e-03 -1.091511e-04  1.702321e-06  1.327328e-06  1.980037e-03  1.980037e-03  1.980037e-03    1.000867    4.681478e-02  0.999553     -0.002744         0.860886
16 -3.848667e-04 -3.936132e-04  3.852357e-04  3.939008e-04  3.689130e-07  2.876476e-07  7.947673e-04  7.947673e-04  7.947673e-04    0.999768   -2.453250e-02  1.000610     -0.031050         0.345551
17 -1.080362e-03 -2.501730e-04  1.081435e-03  2.510096e-04  1.072974e-06  8.366155e-07  1.602357e-03  1.602357e-03  1.602357e-03    0.998923    1.054258e-02  1.000034      0.040114         0.696677
--------------------------------------------------

RES_TRAFO:
    p_hv_mw  q_hv_mvar       p_lv_mw     q_lv_mvar    pl_mw  ql_mvar   i_hv_ka       i_lv_ka  vm_hv_pu  va_hv_degree  vm_lv_pu  va_lv_degree  loading_percent
0  0.000010   0.001000 -3.503742e-07  9.537344e-08  0.00001    0.001  0.000038  5.241497e-07  0.999948     -0.001972  0.999948 -1.971851e-03         0.009999
1  0.000010   0.001000  1.455154e-11  4.154475e-16  0.00001    0.001  0.000038  2.100388e-11  0.999975     -0.000987  0.999975 -9.869946e-04         0.010000
2  0.000011   0.001000 -1.130674e-06  1.911791e-07  0.00001    0.001  0.000038  1.655202e-06  0.999970     -0.001295  0.999970 -1.294227e-03         0.009998
3  0.060698   0.006602 -6.068789e-02 -2.602049e-03  0.00001    0.004  0.000504  2.338024e-03  1.000000      0.000000  1.000000  6.591941e-07         0.152640
--------------------------------------------------

RES_EXT_GRID:
       p_mw    q_mvar
0  0.060698  0.006602
--------------------------------------------------

RES_LOAD:
         p_mw        q_mvar
0    0.000000  0.000000e+00
1    0.000000  0.000000e+00
2    0.000000  0.000000e+00
3    0.000000  0.000000e+00
4    0.000000  0.000000e+00
5    0.000000  0.000000e+00
6    0.000000  0.000000e+00
7    0.000000  0.000000e+00
8    0.000000  0.000000e+00
9    0.000000  0.000000e+00
10   0.000000  0.000000e+00
11   0.000000  0.000000e+00
12   0.000000  0.000000e+00
13   0.000000  0.000000e+00
14   0.000000  0.000000e+00
15   0.000000  0.000000e+00
16   0.000000  0.000000e+00
17   0.000000  0.000000e+00
18   0.000000  0.000000e+00
19   0.000000  0.000000e+00
20   0.000000  0.000000e+00
21   0.000000  0.000000e+00
22   0.000000  0.000000e+00
23   0.001041  2.276662e-04
24   0.000000  0.000000e+00
25   0.000000  0.000000e+00
26   0.000000  0.000000e+00
27   0.000000  0.000000e+00
28   0.000000  0.000000e+00
29   0.000000  0.000000e+00
30   0.000000  0.000000e+00
31   0.000000  0.000000e+00
32   0.000000  0.000000e+00
33   0.000000  0.000000e+00
34   0.000000  0.000000e+00
35   0.000000  0.000000e+00
36   0.000000  0.000000e+00
37   0.000000  0.000000e+00
38   0.000000  0.000000e+00
39   0.000000  0.000000e+00
40   0.000000  0.000000e+00
41   0.000000  0.000000e+00
42   0.000000  0.000000e+00
43   0.000000  0.000000e+00
44   0.000000  0.000000e+00
45   0.000000  0.000000e+00
46   0.000000  0.000000e+00
47   0.001793  4.189990e-04
48  -0.000000  0.000000e+00
49  -0.000000 -0.000000e+00
50  -0.000000 -0.000000e+00
51  -0.000000 -0.000000e+00
52  -0.000000 -0.000000e+00
53  -0.000000 -0.000000e+00
54  -0.000000 -0.000000e+00
55  -0.000000 -0.000000e+00
56  -0.000000 -0.000000e+00
57  -0.000000 -0.000000e+00
58  -0.000000  0.000000e+00
59  -0.000000  0.000000e+00
60  -0.000000 -0.000000e+00
61  -0.000000 -0.000000e+00
62  -0.000000  0.000000e+00
63  -0.000000 -0.000000e+00
64  -0.000000 -0.000000e+00
65  -0.000000 -0.000000e+00
66  -0.000000 -0.000000e+00
67  -0.000000  0.000000e+00
68  -0.000000 -0.000000e+00
69  -0.000000 -0.000000e+00
70  -0.000000 -0.000000e+00
71  -0.001369 -1.104784e-04
72  -0.000000 -0.000000e+00
73  -0.000000 -0.000000e+00
74  -0.000000 -0.000000e+00
75  -0.000000 -0.000000e+00
76  -0.000000 -0.000000e+00
77  -0.000000 -0.000000e+00
78  -0.000000 -0.000000e+00
79  -0.000000 -0.000000e+00
80  -0.000000 -0.000000e+00
81  -0.000000 -0.000000e+00
82  -0.000000 -0.000000e+00
83  -0.000000 -0.000000e+00
84  -0.000000 -0.000000e+00
85  -0.000000 -0.000000e+00
86  -0.000000 -0.000000e+00
87  -0.000000 -0.000000e+00
88  -0.000000 -0.000000e+00
89  -0.000000 -0.000000e+00
90  -0.000000 -0.000000e+00
91  -0.000000 -0.000000e+00
92  -0.000000 -0.000000e+00
93  -0.000000 -0.000000e+00
94  -0.000000 -0.000000e+00
95  -0.001469 -5.390087e-04
96  -0.000000 -0.000000e+00
97  -0.000000 -0.000000e+00
98  -0.000000 -0.000000e+00
99  -0.000000 -0.000000e+00
100 -0.000000 -0.000000e+00
101 -0.000000 -0.000000e+00
102 -0.000000 -0.000000e+00
103 -0.000000 -0.000000e+00
104 -0.000000 -0.000000e+00
105 -0.000000 -0.000000e+00
106 -0.000000 -0.000000e+00
107 -0.000000 -0.000000e+00
108 -0.000000 -0.000000e+00
109 -0.000000 -0.000000e+00
110 -0.000000 -0.000000e+00
111 -0.000000 -0.000000e+00
112 -0.000000 -0.000000e+00
113 -0.000000 -0.000000e+00
114 -0.000000 -0.000000e+00
115 -0.000000 -0.000000e+00
116 -0.000000 -0.000000e+00
117 -0.000000 -0.000000e+00
118 -0.000000 -0.000000e+00
119 -0.000385 -3.939008e-04
120 -0.000000  0.000000e+00
121 -0.000000  0.000000e+00
122 -0.000000  0.000000e+00
123 -0.000000  0.000000e+00
124 -0.000000  0.000000e+00
125 -0.000000  0.000000e+00
126 -0.000000  0.000000e+00
127 -0.000000  0.000000e+00
128 -0.000000  0.000000e+00
129 -0.000000  0.000000e+00
130 -0.000000  0.000000e+00
131 -0.000000  0.000000e+00
132 -0.000000  0.000000e+00
133 -0.000000  0.000000e+00
134 -0.000000  0.000000e+00
135 -0.000000  0.000000e+00
136 -0.000000  0.000000e+00
137 -0.000000  0.000000e+00
138 -0.000000  0.000000e+00
139 -0.000000  0.000000e+00
140 -0.000000  0.000000e+00
141 -0.000000  0.000000e+00
142 -0.000000  0.000000e+00
143 -0.001585  2.876502e-04
144  0.000000  0.000000e+00
145  0.000000  0.000000e+00
146  0.000000  0.000000e+00
147  0.000000  0.000000e+00
148  0.000000  0.000000e+00
149  0.000000  0.000000e+00
150  0.000000  0.000000e+00
151  0.000000  0.000000e+00
152  0.000000  0.000000e+00
153  0.000000  0.000000e+00
154  0.000000  0.000000e+00
155  0.000000  0.000000e+00
156  0.000000  0.000000e+00
157  0.000000  0.000000e+00
158  0.000000  0.000000e+00
159  0.000000  0.000000e+00
160  0.000000  0.000000e+00
161  0.000000  0.000000e+00
162  0.000000  0.000000e+00
163  0.000000  0.000000e+00
164  0.000000  0.000000e+00
165  0.000000  0.000000e+00
166  0.000000  0.000000e+00
167  0.001080  2.501730e-04
168 -0.000000  0.000000e+00
169 -0.000000  0.000000e+00
170 -0.000000  0.000000e+00
171 -0.000000  0.000000e+00
172 -0.000000  0.000000e+00
173 -0.000000  0.000000e+00
174 -0.000000  0.000000e+00
175 -0.000000  0.000000e+00
176 -0.000000  0.000000e+00
177 -0.000000  0.000000e+00
178 -0.000000  0.000000e+00
179 -0.000000  0.000000e+00
180 -0.000000  0.000000e+00
181 -0.000000  0.000000e+00
182 -0.000000  0.000000e+00
183 -0.000000  0.000000e+00
184 -0.000000  0.000000e+00
185 -0.000000  0.000000e+00
186 -0.000000  0.000000e+00
187 -0.000000  0.000000e+00
188 -0.000000  0.000000e+00
189 -0.000000  0.000000e+00
190 -0.000000  0.000000e+00
191 -0.001370  3.575765e-04
192  0.000000 -0.000000e+00
193  0.000000 -0.000000e+00
194  0.000000 -0.000000e+00
195  0.000000 -0.000000e+00
196  0.000000 -0.000000e+00
197  0.000000 -0.000000e+00
198  0.000000 -0.000000e+00
199  0.000000 -0.000000e+00
...

BUS_GEODATA:
        x      y
0    11.0   48.0
1    25.0   38.0
2    51.0   42.0
3     0.0   64.0
4   129.0  138.0
5   105.0   88.0
6   130.0   92.0
7    81.0  115.0
8   103.0  114.0
9    10.0   70.0
10   20.0   80.0
11   40.0   80.0
12   90.0  120.0
13  120.0  120.0
14  120.0  100.0
15    0.0   40.0
16    0.5   39.5
17   50.0   90.0
18   50.5   89.5
19  100.0  110.0
20  100.5  109.5
21   60.0  120.0
22   60.5  119.5
--------------------------------------------------
